pandapower/test/buffer_file.json
{"gen": {"1": {"pg": 0.0, "qg": 0.0, "gen_bus": 4, "vg": 1.06414, "qmax": 150.00000001, "gen_status": 1, "qmin": -150.00000001, "pmin": -1e-08, "pmax": 200.00000001, "index": 1, "model": 2, "ncost": 3, "cost": [0, 40.0, 0.0]}, "2": {"pg": 40.0, "qg": 0.0, "gen_bus": 1, "vg": 1.07762, "qmax": 30.00000001, "gen_status": 1, "qmin": -30.00000001, "pmin": -1e-08, "pmax": 40.00000001, "index": 2, "model": 2, "ncost": 3, "cost": [0, 14.0, 0.0]}, "3": {"pg": 324.49, "qg": 0.0, "gen_bus": 3, "vg": 1.1, "qmax": 390.00000001, "gen_status": 1, "qmin": -390.00000001, "pmin": -1e-08, "pmax": 520.00000001, "index": 3, "model": 2, "ncost": 3, "cost": [0, 30.0, 0.0]}, "4": {"pg": 470.69, "qg": 0.0, "gen_bus": 5, "vg": 1.06907, "qmax": 450.00000001, "gen_status": 1, "qmin": -450.00000001, "pmin": -1e-08, "pmax": 600.00000001, "index": 4, "model": 2, "ncost": 3, "cost": [0, 10.0, 0.0]}, "5": {"pg": 170.0, "qg": 127.5, "gen_bus": 1, "vg": 1.0, "qmax": 127.50000001, "gen_status": 1, "qmin": -127.50000001, "pmin": -1e-08, "pmax": 170.00000001, "index": 5, "model": 2, "ncost": 3, "cost": [0, 15.0, 0.0]}}, "branch": {"1": {"index": 1, "transformer": false, "br_r": 0.00281, "br_x": 0.0281, "g_fr": -0.0, "g_to": -0.0, "b_fr": 0.00356, "b_to": 0.00356, "c_rating_a": 400.00000000000006, "c_rating_b": 250.0, "c_rating_c": 250.0, "f_bus": 1, "t_bus": 2, "br_status": 1, "angmin": -6.283185307179586, "angmax": 6.283185307179586, "tap": 1.0, "shift": 0.0}, "2": {"index": 2, "transformer": false, "br_r": 0.00304, "br_x": 0.030400000000000003, "g_fr": -0.0, "g_to": -0.0, "b_fr": 0.003290000000000001, "b_to": 0.003290000000000001, "c_rating_a": 426.0, "c_rating_b": 250.0, "c_rating_c": 250.0, "f_bus": 1, "t_bus": 4, "br_status": 1, "angmin": -6.283185307179586, "angmax": 6.283185307179586, "tap": 1.0, "shift": 0.0}, "3": {"index": 3, "transformer": false, "br_r": 0.00064, "br_x": 0.0064, "g_fr": -0.0, "g_to": -0.0, "b_fr": 0.015630000000000005, "b_to": 0.015630000000000005, "c_rating_a": 426.0, "c_rating_b": 250.0, "c_rating_c": 250.0, "f_bus": 1, "t_bus": 5, "br_status": 1, "angmin": -6.283185307179586, "angmax": 6.283185307179586, "tap": 1.0, "shift": 0.0}, "4": {"index": 4, "transformer": false, "br_r": 0.00108, "br_x": 0.0108, "g_fr": -0.0, "g_to": -0.0, "b_fr": 0.00926, "b_to": 0.00926, "c_rating_a": 426.0, "c_rating_b": 250.0, "c_rating_c": 250.0, "f_bus": 2, "t_bus": 3, "br_status": 1, "angmin": -6.283185307179586, "angmax": 6.283185307179586, "tap": 1.0, "shift": 0.0}, "5": {"index": 5, "transformer": false, "br_r": 0.00297, "br_x": 0.0297, "g_fr": -0.0, "g_to": -0.0, "b_fr": 0.0033700000000000006, "b_to": 0.0033700000000000006, "c_rating_a": 240.0, "c_rating_b": 250.0, "c_rating_c": 250.0, "f_bus": 4, "t_bus": 5, "br_status": 1, "angmin": -6.283185307179586, "angmax": 6.283185307179586, "tap": 1.0, "shift": 0.0}, "6": {"index": 6, "transformer": true, "br_r": 0.00296970273567, "br_x": 0.0296985285415665, "g_fr": 1.686668462693209e-08, "g_to": 1.686668462693209e-08, "b_fr": 0.0033701686583210125, "b_to": 0.0033701686583210125, "c_rating_a": 426.0, "c_rating_b": 250.0, "c_rating_c": 250.0, "f_bus": 3, "t_bus": 4, "br_status": 1, "angmin": -6.283185307179586, "angmax": 6.283185307179586, "tap": 1.05, "shift": 0.017453292519943295}, "7": {"index": 7, "transformer": true, "br_r": 0.00296970273567, "br_x": 0.0296985285415665, "g_fr": 1.686668462693209e-08, "g_to": 1.686668462693209e-08, "b_fr": 0.0033701686583210125, "b_to": 0.0033701686583210125, "c_rating_a": 426.0, "c_rating_b": 250.0, "c_rating_c": 250.0, "f_bus": 3, "t_bus": 4, "br_status": 1, "angmin": -6.283185307179586, "angmax": 6.283185307179586, "tap": 1.05, "shift": -0.017453292519943295}}, "bus": {"1": {"index": 1, "bus_i": 1, "zone": 1, "bus_type": 2, "vmax": 1.1, "vmin": 0.9, "va": 0.0, "vm": 1.07762, "base_kv": 230.0}, "2": {"index": 2, "bus_i": 2, "zone": 1, "bus_type": 1, "vmax": 1.1, "vmin": 0.9, "va": 0.0, "vm": 1.0, "base_kv": 230.0}, "3": {"index": 3, "bus_i": 3, "zone": 1, "bus_type": 2, "vmax": 1.1, "vmin": 0.9, "va": 0.0, "vm": 1.1, "base_kv": 230.0}, "4": {"index": 4, "bus_i": 4, "zone": 1, "bus_type": 3, "vmax": 1.1, "vmin": 0.9, "va": 0.0, "vm": 1.06414, "base_kv": 230.0}, "5": {"index": 5, "bus_i": 5, "zone": 1, "bus_type": 2, "vmax": 1.1, "vmin": 0.9, "va": 0.0, "vm": 1.06907, "base_kv": 230.0}}, "dcline": {}, "load": {"1": {"pd": 300.0, "qd": 98.61, "load_bus": 2, "status": 1, "index": 1}, "2": {"pd": 300.0, "qd": 98.61, "load_bus": 3, "status": 1, "index": 2}, "3": {"pd": 400.0, "qd": 131.47, "load_bus": 4, "status": 1, "index": 3}}, "storage": {}, "ne_branch": {}, "switch": {}, "baseMVA": 100.0, "source_version": "2.0.0", "shunt": {}, "sourcetype": "matpower", "per_unit": true, "name": "", "pm_solver": "ipopt", "pm_mip_solver": "cbc", "pm_nl_solver": "ipopt", "pm_model": "ACPPowerModel", "pm_log_level": 0, "pm_time_limit": Infinity, "pm_nl_time_limit": Infinity, "pm_mip_time_limit": Infinity, "correct_pm_network_data": false}